4ek5_B_03K.pdb
     RDKit          3D

 20 22  0  0  0  0  0  0  0  0999 V2000
   -3.1915   -6.1180   29.5384 N   0  0  0  0  0  0  0  0  0  0  0  0
   -8.4890  -11.5991   30.2320 N   0  0  0  0  0  0  0  0  0  0  0  0
   -0.4364   -3.8508   29.5974 N   0  0  0  0  0  0  0  0  0  0  0  0
   -1.6678   -4.3516   30.0258 N   0  0  0  0  0  0  0  0  0  0  0  0
   -7.6516  -11.0427   32.3193 O   0  0  0  0  0  0  0  0  0  0  0  0
   -2.9013   -7.7107   27.8485 O   0  0  0  0  0  0  0  0  0  0  0  0
   -6.0949  -10.1264   29.1722 C   0  0  0  0  0  0  0  0  0  0  0  0
   -5.9162   -9.0367   31.3239 C   0  0  0  0  0  0  0  0  0  0  0  0
   -5.1185   -9.2679   28.6589 C   0  0  0  0  0  0  0  0  0  0  0  0
   -4.9382   -8.1814   30.8121 C   0  0  0  0  0  0  0  0  0  0  0  0
   -0.9462   -5.6636   28.2756 C   0  0  0  0  0  0  0  0  0  0  0  0
    1.6628   -5.0506   26.6901 C   0  0  0  0  0  0  0  0  0  0  0  0
    2.3416   -5.3725   28.0153 C   0  0  0  0  0  0  0  0  0  0  0  0
   -7.5593  -10.9046   31.0703 C   0  0  0  0  0  0  0  0  0  0  0  0
   -3.5013   -7.3731   28.9061 C   0  0  0  0  0  0  0  0  0  0  0  0
   -6.5170  -10.0107   30.5078 C   0  0  0  0  0  0  0  0  0  0  0  0
   -4.5392   -8.2746   29.4666 C   0  0  0  0  0  0  0  0  0  0  0  0
   -1.9860   -5.3734   29.3077 C   0  0  0  0  0  0  0  0  0  0  0  0
    0.0053   -4.5618   28.6148 C   0  0  0  0  0  0  0  0  0  0  0  0
    1.3149   -4.2500   27.9399 C   0  0  0  0  0  0  0  0  0  0  0  0
  1 15  1  0
  1 18  1  0
  2 14  1  0
  3 19  2  0
  3  4  1  0
  4 18  2  0
  5 14  2  0
  6 15  2  0
  7  9  2  0
  7 16  1  0
  8 16  2  0
  8 10  1  0
  9 17  1  0
 10 17  2  0
 11 19  1  0
 11 18  1  0
 12 13  1  0
 12 20  1  0
 13 20  1  0
 14 16  1  0
 15 17  1  0
 19 20  1  0
M  END
$$$$
