4fkg_B_4CK.pdb
     RDKit          3D

 20 22  0  0  0  0  0  0  0  0999 V2000
   -0.7300   -3.5672   29.1202 N   0  0  0  0  0  0  0  0  0  0  0  0
   -1.9055   -4.0259   29.5164 N   0  0  0  0  0  0  0  0  0  0  0  0
   -3.1019   -6.1554   29.4545 N   0  0  0  0  0  0  0  0  0  0  0  0
   -6.7512  -11.5158   32.5897 O   0  0  0  0  0  0  0  0  0  0  0  0
   -2.8182   -7.7072   27.7315 O   0  0  0  0  0  0  0  0  0  0  0  0
   -7.7846  -12.0418   30.6239 O   0  0  0  0  0  0  0  0  0  0  0  0
   -5.6626  -10.3951   29.3216 C   0  0  0  0  0  0  0  0  0  0  0  0
   -5.3468   -9.3142   31.4627 C   0  0  0  0  0  0  0  0  0  0  0  0
   -4.8185   -9.4544   28.7245 C   0  0  0  0  0  0  0  0  0  0  0  0
   -4.5054   -8.3722   30.8652 C   0  0  0  0  0  0  0  0  0  0  0  0
   -0.8098   -5.7019   28.5105 C   0  0  0  0  0  0  0  0  0  0  0  0
    1.6846   -5.1467   26.7027 C   0  0  0  0  0  0  0  0  0  0  0  0
    2.2786   -5.5588   28.0419 C   0  0  0  0  0  0  0  0  0  0  0  0
   -6.8351  -11.3209   31.3473 C   0  0  0  0  0  0  0  0  0  0  0  0
   -3.3420   -7.4351   28.8451 C   0  0  0  0  0  0  0  0  0  0  0  0
   -5.9452  -10.3288   30.6965 C   0  0  0  0  0  0  0  0  0  0  0  0
   -4.2400   -8.4251   29.4866 C   0  0  0  0  0  0  0  0  0  0  0  0
   -1.9782   -5.3183   29.1463 C   0  0  0  0  0  0  0  0  0  0  0  0
   -0.0401   -4.5494   28.5107 C   0  0  0  0  0  0  0  0  0  0  0  0
    1.3500   -4.3562   27.9590 C   0  0  0  0  0  0  0  0  0  0  0  0
  1  2  1  0
  1 19  1  0
  2 18  2  0
  3 18  1  0
  3 15  1  0
  4 14  2  0
  5 15  2  0
  6 14  1  0
  7 16  2  0
  7  9  1  0
  8 10  2  0
  8 16  1  0
  9 17  2  0
 10 17  1  0
 11 18  1  0
 11 19  2  0
 12 20  1  0
 12 13  1  0
 13 20  1  0
 14 16  1  0
 15 17  1  0
 19 20  1  0
M  END
$$$$
