4fkq_B_42K.pdb
     RDKit          3D

 25 28  0  0  1  0  0  0  0  0999 V2000
    0.0860   -3.5414   28.6769 N   0  0  0  0  0  0  0  0  0  0  0  0
    2.0646   -6.8037   24.7465 N   0  0  0  0  0  0  0  0  0  0  0  0
    0.9266   -7.3716   24.7000 N   0  0  0  0  0  0  0  0  0  0  0  0
    0.1837   -7.1632   25.8651 N   0  0  0  0  0  0  0  0  0  0  0  0
   -1.6135   -6.7344   28.5304 N   0  0  0  0  0  0  0  0  0  0  0  0
   -2.7965   -6.8113   29.2844 N   0  0  0  0  0  0  0  0  0  0  0  0
   -6.0096  -12.5690   27.5572 N   0  0  0  0  0  0  0  0  0  0  0  0
   -1.8972   -4.0003   29.8779 O   0  0  0  0  0  0  0  0  0  0  0  0
   -7.1702  -11.8124   29.7993 O   0  0  0  0  0  0  0  0  0  0  0  0
   -7.9177  -10.7493   27.7166 O   0  0  0  0  0  0  0  0  0  0  0  0
   -3.5333   -8.8245   28.0494 C   0  0  0  0  0  0  0  0  0  0  0  0
   -4.8430   -8.0101   29.9192 C   0  0  0  0  0  0  0  0  0  0  0  0
   -4.4514   -9.8608   27.8587 C   0  0  0  0  0  0  0  0  0  0  0  0
   -5.7588   -9.0497   29.7285 C   0  0  0  0  0  0  0  0  0  0  0  0
    2.4785   -4.6846   25.9768 C   0  0  0  0  0  0  0  0  0  0  0  0
    1.8974   -3.8473   26.8606 C   0  0  0  0  0  0  0  0  0  0  0  0
   -3.7205   -7.8913   29.0853 C   0  0  0  0  0  0  0  0  0  0  0  0
   -5.5638   -9.9831   28.7018 C   0  0  0  0  0  0  0  0  0  0  0  0
   -0.9694   -4.3868   29.1205 C   0  0  0  0  0  0  0  0  0  0  0  0
   -0.8155   -5.7093   28.5128 C   0  0  0  0  0  0  0  0  0  0  0  0
    2.2405   -6.1825   26.0493 C   0  0  1  0  0  0  0  0  0  0  0  0
    0.8603   -4.3530   27.7929 C   0  0  0  0  0  0  0  0  0  0  0  0
    0.9225   -6.4861   26.6752 C   0  0  0  0  0  0  0  0  0  0  0  0
    0.3893   -5.5955   27.7022 C   0  0  0  0  0  0  0  0  0  0  0  0
   -6.7277  -11.2814   28.4632 S   0  0  0  0  0  6  0  0  0  0  0  0
  1 19  1  0
  1 22  1  0
  2  3  2  0
  2 21  1  0
  3  4  1  0
  4 23  2  0
  5  6  1  0
  5 20  2  0
  6 17  1  0
  7 25  1  0
  8 19  2  0
  9 25  2  0
 10 25  2  0
 11 13  2  0
 11 17  1  0
 12 14  1  0
 12 17  2  0
 13 18  1  0
 14 18  2  0
 15 16  2  0
 16 22  1  0
 18 25  1  0
 19 20  1  0
 20 24  1  0
 21 15  1  6
 21 23  1  0
 22 24  2  0
 23 24  1  0
M  END
$$$$
