BRD4, Ligand 10
     RDKit          3D

 27 30  0  0  1  0  0  0  0  0999 V2000
   -0.5296   -0.7232   14.7487 C   0  0  0  0  0  0  0  0  0  0  0  0
    0.1856   -2.3097   16.4375 C   0  0  0  0  0  0  0  0  0  0  0  0
   -1.6363   -0.3896   15.5324 C   0  0  0  0  0  0  0  0  0  0  0  0
   -0.9173   -1.9644   17.2243 C   0  0  0  0  0  0  0  0  0  0  0  0
    2.5659   -2.5482   11.5159 C   0  0  0  0  0  0  0  0  0  0  0  0
    0.4022   -1.6782   15.1987 C   0  0  0  0  0  0  0  0  0  0  0  0
    2.2209   -0.9872   13.4969 C   0  0  0  0  0  0  0  0  0  0  0  0
    2.4481    0.3639   13.8708 C   0  0  0  0  0  0  0  0  0  0  0  0
   -1.8283   -1.0041   16.7735 C   0  0  0  0  0  0  0  0  0  0  0  0
    2.5171   -1.2246   12.1499 C   0  0  0  0  0  0  0  0  0  0  0  0
    2.8460   -3.7198   12.1709 C   0  0  0  0  0  0  0  0  0  0  0  0
    2.4475   -2.9204   10.1906 C   0  0  0  0  0  0  0  0  0  0  0  0
    2.8727    1.1618   12.8027 C   0  0  0  0  0  0  0  0  0  0  0  0
    1.5939   -2.0211   14.3827 C   0  0  0  0  0  0  0  0  0  0  0  0
    3.6405   -5.4198   15.5384 C   0  0  0  0  0  0  0  0  0  0  0  0
    3.1249   -3.8271   13.6442 C   0  0  0  0  0  0  0  0  0  0  0  0
    2.2651    0.9052   15.2641 C   0  0  0  0  0  0  0  0  0  0  0  0
    2.1815   -2.0305    9.0203 C   0  0  0  0  0  0  0  0  0  0  0  0
    3.0989    2.6402   12.8202 C   0  0  0  0  0  0  0  0  0  0  0  0
    3.3501   -5.2880   14.0671 C   0  0  0  0  0  0  0  0  0  0  0  0
    2.6468   -4.2508   10.0899 N   0  0  0  0  0  0  0  0  0  0  0  0
    2.0059   -3.2608   14.4005 N   0  0  0  0  0  0  0  0  0  0  0  0
    3.1283   -6.5332   16.2744 N   0  0  0  0  0  0  0  0  0  0  0  0
    4.3838   -4.5797   16.1181 O   0  0  0  0  0  0  0  0  0  0  0  0
    2.8817   -4.6959   11.2920 O   0  0  0  0  0  0  0  0  0  0  0  0
    2.9899    0.2130   11.4234 S   0  0  0  0  0  0  0  0  0  0  0  0
   -3.2064   -0.5648   17.7664 Cl  0  0  0  0  0  0  0  0  0  0  0  0
  1  3  2  0
  1  6  1  0
  2  4  1  0
  2  6  2  0
  3  9  1  0
  4  9  2  0
  5 10  1  0
  5 11  2  0
  5 12  1  0
  6 14  1  0
  7  8  1  0
  7 10  2  0
  7 14  1  0
  8 13  2  0
  8 17  1  0
  9 27  1  0
 10 26  1  0
 11 16  1  0
 11 25  1  0
 12 18  1  0
 12 21  2  0
 13 19  1  0
 13 26  1  0
 14 22  2  0
 15 20  1  0
 15 23  1  0
 15 24  2  0
 16 20  1  0
 16 22  1  0
 21 25  1  0
M  END
$$$$
