BRD4, Ligand 7
     RDKit          3D

 23 26  0  0  0  0  0  0  0  0999 V2000
    3.2252    2.8930   13.6522 Cl  0  0  0  0  0  0  0  0  0  0  0  0
    2.9021    1.3352   12.9133 C   0  0  0  0  0  0  0  0  0  0  0  0
    2.2569    0.3359   13.6427 C   0  0  0  0  0  0  0  0  0  0  0  0
    1.9821   -0.9224   13.0681 C   0  0  0  0  0  0  0  0  0  0  0  0
    1.2641   -1.9354   13.9043 C   0  0  0  0  0  0  0  0  0  0  0  0
    0.1626   -1.5023   14.8043 C   0  0  0  0  0  0  0  0  0  0  0  0
   -0.7263   -0.4842   14.4094 C   0  0  0  0  0  0  0  0  0  0  0  0
   -1.7692   -0.0882   15.2520 C   0  0  0  0  0  0  0  0  0  0  0  0
   -1.9425   -0.7077   16.4918 C   0  0  0  0  0  0  0  0  0  0  0  0
   -1.0751   -1.7274   16.8900 C   0  0  0  0  0  0  0  0  0  0  0  0
   -0.0300   -2.1272   16.0515 C   0  0  0  0  0  0  0  0  0  0  0  0
    1.6338   -3.1846   13.9620 N   0  0  0  0  0  0  0  0  0  0  0  0
    2.5786   -3.7982   13.1239 N   0  0  0  0  0  0  0  0  0  0  0  0
    3.2650   -4.9809   13.6301 C   0  0  0  0  0  0  0  0  0  0  0  0
    2.4287   -3.6379   11.7115 C   0  0  0  0  0  0  0  0  0  0  0  0
    2.2032   -2.4557   11.1219 N   0  0  0  0  0  0  0  0  0  0  0  0
    1.9829   -2.8016    9.8321 C   0  0  0  0  0  0  0  0  0  0  0  0
    1.6371   -1.8632    8.7189 C   0  0  0  0  0  0  0  0  0  0  0  0
    2.0818   -4.1350    9.6581 N   0  0  0  0  0  0  0  0  0  0  0  0
    2.3575   -4.6633   10.8414 N   0  0  0  0  0  0  0  0  0  0  0  0
    2.3823   -1.1642   11.7284 C   0  0  0  0  0  0  0  0  0  0  0  0
    3.0601   -0.1532   11.0206 C   0  0  0  0  0  0  0  0  0  0  0  0
    3.3048    1.0889   11.6037 C   0  0  0  0  0  0  0  0  0  0  0  0
  1  2  1  0
  2  3  2  0
  2 23  1  0
  3  4  1  0
  4  5  1  0
  4 21  2  0
  5  6  1  0
  5 12  2  0
  6  7  2  0
  6 11  1  0
  7  8  1  0
  8  9  2  0
  9 10  1  0
 10 11  2  0
 12 13  1  0
 13 14  1  0
 13 15  1  0
 15 16  1  0
 15 20  2  0
 16 17  1  0
 16 21  1  0
 17 18  1  0
 17 19  2  0
 19 20  1  0
 21 22  1  0
 22 23  2  0
M  END
$$$$
