BRD4, Ligand 9
     RDKit          3D

 31 34  0  0  1  0  0  0  0  0999 V2000
    2.0302   -1.9083    8.9486 C   0  0  0  0  0  0  0  0  0  0  0  0
    3.2392    2.7544   12.5319 C   0  0  0  0  0  0  0  0  0  0  0  0
    2.0715    1.2325   14.9697 C   0  0  0  0  0  0  0  0  0  0  0  0
    2.8043   -3.6246   18.3782 C   0  0  0  0  0  0  0  0  0  0  0  0
    4.9804   -4.9028   18.1317 C   0  0  0  0  0  0  0  0  0  0  0  0
    4.9060   -2.4342   17.7252 C   0  0  0  0  0  0  0  0  0  0  0  0
    2.7130   -5.9578   16.3015 O   0  0  0  0  0  0  0  0  0  0  0  0
   -3.8616    0.0111   17.0269 Cl  0  0  0  0  0  0  0  0  0  0  0  0
   -2.0001    0.1902   15.0278 C   0  0  0  0  0  0  0  0  0  0  0  0
   -1.6124   -1.5117   16.7056 C   0  0  0  0  0  0  0  0  0  0  0  0
   -0.8337   -0.1962   14.3614 C   0  0  0  0  0  0  0  0  0  0  0  0
   -0.4449   -1.8999   16.0424 C   0  0  0  0  0  0  0  0  0  0  0  0
    2.8806   -4.9810   14.1300 C   0  0  0  0  0  0  0  0  0  0  0  0
    1.5625   -2.9250   14.2613 N   0  0  0  0  0  0  0  0  0  0  0  0
    2.3249   -4.1353   10.0582 N   0  0  0  0  0  0  0  0  0  0  0  0
    2.4933   -4.5910   11.2918 N   0  0  0  0  0  0  0  0  0  0  0  0
    3.8524   -3.9334   16.1907 O   0  0  0  0  0  0  0  0  0  0  0  0
    2.9889    0.2915   11.2191 S   0  0  0  0  0  0  0  0  0  0  0  0
    3.1294   -4.9890   15.6100 C   0  0  0  0  0  0  0  0  0  0  0  0
    1.2029   -1.6743   14.1582 C   0  0  0  0  0  0  0  0  0  0  0  0
   -2.3909   -0.4653   16.2010 C   0  0  0  0  0  0  0  0  0  0  0  0
    2.2167   -2.7943   10.1386 C   0  0  0  0  0  0  0  0  0  0  0  0
   -0.0336   -1.2425   14.8652 C   0  0  0  0  0  0  0  0  0  0  0  0
    2.8512    1.3122   12.5471 C   0  0  0  0  0  0  0  0  0  0  0  0
    2.2659    0.6142   13.6097 C   0  0  0  0  0  0  0  0  0  0  0  0
    2.4805   -3.5197   12.1064 C   0  0  0  0  0  0  0  0  0  0  0  0
    1.9393   -0.7244   13.2715 C   0  0  0  0  0  0  0  0  0  0  0  0
    2.3155   -1.0530   11.9659 C   0  0  0  0  0  0  0  0  0  0  0  0
    2.7010   -3.5531   13.5941 C   0  0  0  0  0  0  0  0  0  0  0  0
    2.3007   -2.3788   11.4183 N   0  0  0  0  0  0  0  0  0  0  0  0
    4.1199   -3.7473   17.5866 C   0  0  0  0  0  0  0  0  0  0  0  0
  1 22  1  0
  2 24  1  0
  3 25  1  0
  4 31  1  0
  5 31  1  0
  6 31  1  0
  7 19  2  0
  8 21  1  0
  9 11  2  0
  9 21  1  0
 10 12  1  0
 10 21  2  0
 11 23  1  0
 12 23  2  0
 13 19  1  0
 13 29  1  0
 14 20  2  0
 14 29  1  0
 15 16  1  0
 15 22  2  0
 16 26  2  0
 17 19  1  0
 17 31  1  0
 18 24  1  0
 18 28  1  0
 20 23  1  0
 20 27  1  0
 22 30  1  0
 24 25  2  0
 25 27  1  0
 26 29  1  0
 26 30  1  0
 27 28  2  0
 28 30  1  0
M  END
$$$$
