BRD4, Ligand 1
     RDKit          3D

 16 18  0  0  0  0  0  0  0  0999 V2000
    2.7450   -3.1134   11.5359 N   0  0  0  0  0  0  0  0  0  0  0  0
    2.5049   -4.1490    9.4433 N   0  0  0  0  0  0  0  0  0  0  0  0
    3.0964   -3.4568   12.7596 N   0  0  0  0  0  0  0  0  0  0  0  0
    3.1442   -5.3035   11.4466 N   0  0  0  0  0  0  0  0  0  0  0  0
    2.4342   -1.8781   11.0569 C   0  0  0  0  0  0  0  0  0  0  0  0
    2.1426   -1.7790    9.6821 C   0  0  0  0  0  0  0  0  0  0  0  0
    2.7814   -4.2027   10.7677 C   0  0  0  0  0  0  0  0  0  0  0  0
    2.1801   -2.9452    8.8850 C   0  0  0  0  0  0  0  0  0  0  0  0
    1.8704   -2.8647    7.4244 C   0  0  0  0  0  0  0  0  0  0  0  0
    3.3292   -4.7901   12.6916 C   0  0  0  0  0  0  0  0  0  0  0  0
    2.4021   -0.6838   11.9353 C   0  0  0  0  0  0  0  0  0  0  0  0
    2.9684    0.5305   11.5064 C   0  0  0  0  0  0  0  0  0  0  0  0
    2.9337    1.6576   12.3332 C   0  0  0  0  0  0  0  0  0  0  0  0
    2.3305    1.5856   13.5911 C   0  0  0  0  0  0  0  0  0  0  0  0
    1.7587    0.3868   14.0237 C   0  0  0  0  0  0  0  0  0  0  0  0
    1.7916   -0.7434   13.2009 C   0  0  0  0  0  0  0  0  0  0  0  0
  1  3  1  0
  1  5  1  0
  1  7  1  0
  2  7  1  0
  2  8  2  0
  3 10  2  0
  4  7  2  0
  4 10  1  0
  5  6  2  0
  5 11  1  0
  6  8  1  0
  8  9  1  0
 11 12  2  0
 11 16  1  0
 12 13  1  0
 13 14  2  0
 14 15  1  0
 15 16  2  0
M  END
$$$$
