BRD4, Ligand 1
  PyMOL2.4          3D                             0

  6  6  0  0  0  0  0  0  0  0999 V2000
    2.4000   -0.6670   11.9180 C   0  0  0  0  0  0  0  0  0  0  0  0
    3.0530    0.5050   11.5340 C   0  0  0  0  0  0  0  0  0  0  0  0
    3.0160    1.6280   12.3610 C   0  0  0  0  0  0  0  0  0  0  0  0
    2.3260    1.5790   13.5730 C   0  0  0  0  0  0  0  0  0  0  0  0
    1.6740    0.4080   13.9570 C   0  0  0  0  0  0  0  0  0  0  0  0
    1.7100   -0.7140   13.1300 C   0  0  0  0  0  0  0  0  0  0  0  0
  1  2  2  0  0  0  0
  1  6  1  0  0  0  0
  2  3  1  0  0  0  0
  3  4  2  0  0  0  0
  4  5  1  0  0  0  0
  5  6  2  0  0  0  0
M  END
$$$$
