1CK
  PyMOL2.4          3D                             0

  6  6  0  0  0  0  0  0  0  0999 V2000
   -6.0950   -9.9460   29.2720 C   0  0  0  0  0  0  0  0  0  0  0  0
   -5.7070   -9.0320   31.4960 C   0  0  0  0  0  0  0  0  0  0  0  0
   -5.0030   -9.2060   28.7980 C   0  0  0  0  0  0  0  0  0  0  0  0
   -4.6190   -8.3030   30.9970 C   0  0  0  0  0  0  0  0  0  0  0  0
   -6.4430   -9.8680   30.6280 C   0  0  0  0  0  0  0  0  0  0  0  0
   -4.2500   -8.3510   29.6500 C   0  0  0  0  0  0  0  0  0  0  0  0
  1  3  2  0  0  0  0
  1  5  1  0  0  0  0
  2  4  1  0  0  0  0
  2  5  2  0  0  0  0
  3  6  1  0  0  0  0
  4  6  2  0  0  0  0
M  END
$$$$
